
**** 06/24/25 01:39:02 *** PSpice 23.1.0 (29 September 2023) ** ID# 0 ********

 ** Profile: "SCHEMATIC1-gate"  [ C:\Users\shustrik\Documents\Altium\buoy_v2\моделирование заряда затвора\gate_charge-PSpiceFiles\SCH


 ****     CIRCUIT DESCRIPTION


******************************************************************************




** Creating circuit file "gate.cir" 
** WARNING: THIS AUTOMATICALLY GENERATED FILE MAY BE OVERWRITTEN BY SUBSEQUENT SIMULATIONS

*Libraries: 
* Profile Libraries :
* Local Libraries :
* From [PSPICE NETLIST] section of C:\Users\shustrik\AppData\Roaming\SPB_Data\cdssetup\OrCAD_PSpice\23.1.0\PSpice.ini file:
.lib "nom.lib" 

*Analysis directives: 
.TRAN  0 50ms 0 10u 
.OPTIONS ADVCONV
.PROBE64 V(alias(*)) I(alias(*)) W(alias(*)) D(alias(*)) NOISE(alias(*)) 
.INC "..\SCHEMATIC1.net" 



**** INCLUDING SCHEMATIC1.net ****
* source GATE_CHARGE
X_M1         N16040 N16044 0 NAMS20
C_C1         N16193 N16044  100n  TC=0,0 
R_R2         N16040 12V  10 TC=0,0 
V_V3         N16193 0  
+PULSE 5 0 10m 10m 1n 1 20m
V_V4         12V 0 12Vdc

**** RESUMING gate.cir ****
.END

ERROR(ORPSIM-15142): Node N16044 is floating
